reports/poster/ias2026/research/results/EMT03/EMT03_D5_ieee39_chatter.csv
case,t_from,t_to,finite,t_end,n_gfl,max_alt_gfl_buses,max_alt_all_buses,max_dev_vmag_from_t0
P4_BASE,0.0,0.1,True,29.999550000000003,0,,4.7285968891586094e-06,4.7983748103774815e-06
P4_BASE,0.1,1.0,True,29.999550000000003,0,,1.7271703312005116e-07,3.9469225114885376e-06
P4_BASE,1.0,10.0,True,29.999550000000003,0,,2.7059516849448073e-09,2.060294689298914e-06
P4_BASE,10.0,30.0,True,29.999550000000003,0,,5.301343808383763e-10,1.4887460300094801e-06
P4_H4,0.0,0.1,True,29.999550000000003,4,4.90363802696514e-06,4.90363802696514e-06,1.028250342449688e-05
P4_H4,0.1,1.0,True,29.999550000000003,4,5.350270386728084e-07,5.350270386728084e-07,6.590110334103727e-06
P4_H4,1.0,10.0,True,29.999550000000003,4,1.9360181457983572e-08,2.1462206900579872e-08,5.551367360689952e-06
P4_H4,10.0,30.0,True,29.999550000000003,4,2.4185579650115585e-07,2.6867465074964514e-07,6.758456339372998e-05
GS_H4,0.0,0.1,True,29.999550000000003,4,4.509273412889314e-06,4.721346961833461e-06,9.430940970611701e-06
GS_H4,0.1,1.0,True,29.999550000000003,4,5.000795937348812e-07,5.846499673278771e-07,5.14990533639903e-06
GS_H4,1.0,10.0,True,29.999550000000003,4,6.527361540165089e-09,7.1640458010335806e-09,2.4409430630090156e-06
GS_H4,10.0,30.0,True,29.999550000000003,4,1.713336361675033e-09,2.0519999033297154e-09,1.6843896657459112e-06
